2
I0001 0 1 PULSE 0 100 1 0 0 0 1 1E+1
R 1 0 1
.TRAN 40 20E-3 BE 1
