9
V0209 0 1 PULSE 0 1 0 0 0 1000 2000 1
R 1 2 1
R 2 0 1
.TRAN 20 20E-3 BE 1
