9
V0100 1 0 PULSE 1 2 1 1 1 1 7 3
R 1 2 1
R 2 0 1
.TRAN 40 20E-3 BE 1
