9
V0100 1 0 DC 5
R 1 2 1
C 2 0 0.5
.TRAN 40 20E-3 BE 1
