9
V 1 0 SIN 2 1 1 0 0 0 100
R 1 2 2
*L 1 2 1
*C 2 0 1
R 2 0 2
.TRAN 10 20E-3 BE 1
