9
V0100 1 0 DC 5
L 1 2 1
R 2 0 1
.TRAN 40 20E-3 BE 1
